*----------------------------------------------------------------------
* SPICE Model generated by Murata Manufacturing Co., Ltd.
* Copyright(C) Murata Manufacturing Co., Ltd.
* Description :3225M(1210)/X5R/220uF/6.3V
* Murata P/N :GRM32ER60J227ME05
* Property : C = 220[uF]
* Data Generated on Dec 1, 2020
*----------------------------------------------------------------------
* Applicable Conditions:
*   Frequency Range = 100Hz-6GHz
*   Temperature = 25 degC
*   DC Bias Voltage = 0V
*   Small Signal Operation
*----------------------------------------------------------------------
.SUBCKT GRM32ER60J227ME05_DC0V_25degC port1 port2
C1 port1 11 1.77e-4
L2 11 12 1.13e-10
R3 12 13 8.72e-4
C4 13 14 8.49e-3
R4 13 14 6.25e-1
C5 14 15 9.22e-3
R5 14 15 6.58e-2
C6 15 16 7.68e-3
R6 15 16 1.12e-2
L7 16 17 1.23e-11
R7 16 17 5.47e-2
L8 17 18 3.67e-11
R8 17 18 1.96e-2
L9 18 19 7.95e-11
R9 18 19 8.28e-3
L10 19 20 5.91e-10
R10 19 20 4.91e-3
C11 20 21 3.47e-4
L11 20 21 2.44e-10
R11 20 21 1.53e-3
C12 21 22 4.26e-4
L12 21 22 9.29e-11
R12 21 22 1.20e-3
C13 22 23 6.52e-11
L13 22 23 5.86e-11
R13 22 23 4.17
C14 23 port2 3.21e-12
L14 23 port2 2.02e-10
R14 23 port2 81.7
R100 port1 11 2.27e+5
.ENDS GRM32ER60J227ME05_DC0V_25degC